<?xml version="1.0" encoding="UTF-8"?>

<!-- generated on 2024-07-02 22:00:12 by Eclipse SUMO netedit Version 1.20.0
-->

<routes xmlns:xsi="http://www.w3.org/2001/XMLSchema-instance" xsi:noNamespaceSchemaLocation="http://sumo.dlr.de/xsd/routes_file.xsd">
    <!-- VTypes -->
    <vType id="typeNormal" maxSpeed="55.00" vClass="passenger"/>
    <vType id="typeTruckFollow" maxSpeed="36.11" vClass="truck" carFollowModel="CACC"/>
    <vType id="typeTruckLeader" maxSpeed="20.00" vClass="truck" carFollowModel="CACC"/>
    <!-- Routes -->
    <route id="r_0" edges="-E11 -E10 -E1 E1 E10 E11 -E11 -E10 -E1 E1 E10 E11 -E11 -E10 -E1 E1 E10 E11 -E11 -E10 -E1 E1 E10 E11 -E11 -E10 -E1 E1 E10 E11 -E11 -E10 -E1 E1 E10 E11 -E11 -E10 -E1 E1 E10 E11 -E11 -E10 -E1 E1 E10 E11 -E11 -E10 -E1 E1 E10 E11 -E11 -E10 -E1 E1 E10 E11 -E11 -E10 -E1 E1 E10 E11 -E11 -E10 -E1 E1 E10 E11 -E11 -E10 -E1 E1 E10 E11 -E11 -E10 -E1 E1 E10 E11 -E11 -E10 -E1 E1 E10 E11 -E11 -E10 -E1 E1 E10 E11 -E11 -E10 -E1 E1 E10 E11 -E11 -E10 -E1 E1 E10 E11 -E11 -E10 -E1 E1 E10 E11 -E11 -E10 -E1 E1 E10 E11 -E11 -E10 -E1 E1 E10 E11 -E11 -E10 -E1 E1 E10 E11 -E11 -E10 -E1 E1 E10 E11 -E11 -E10 -E1 E1 E10 E11 -E11 -E10 -E1 E1 E10 E11 -E11 -E10 -E1 E1 E10 E11 -E11 -E10 -E1 E1 E10 E11 -E11 -E10 -E1 E1 E10 E11 -E11 -E10 -E1 E1 E10 E11 -E11 -E10 -E1 E1 E10 E11 -E11 -E10 -E1 E1 E10 E11 -E11 -E10 -E1 E1 E10 E11 -E11 -E10 -E1 E1 E10 E11 -E11 -E10 -E1 E1 E10 E11 -E11 -E10 -E1 E1 E10 E11 -E11 -E10 -E1 E1 E10 E11 -E11 -E10 -E1 E1 E10 E11 -E11 -E10 -E1 E1 E10 E11 -E11 -E10 -E1 E1 E10 E11 -E11 -E10 -E1 E1 E10 E11 -E11 -E10 -E1 E1 E10 E11 -E11 -E10 -E1 E1 E10 E11 -E11 -E10 -E1 E1 E10 E11 -E11 -E10 -E1 E1 E10 E11 -E11 -E10 -E1 E1 E10 E11"/>
    <route id="r_1" edges="E1 E10 E11 -E11 -E10 -E1 E1 E10 E11 -E11 -E10 -E1 E1 E10 E11 -E11 -E10 -E1 E1 E10 E11 -E11 -E10 -E1 E1 E10 E11 -E11 -E10 -E1 E1 E10 E11 -E11 -E10 -E1 E1 E10 E11 -E11 -E10 -E1 E1 E10 E11 -E11 -E10 -E1 E1 E10 E11 -E11 -E10 -E1 E1 E10 E11 -E11 -E10 -E1 E1 E10 E11 -E11 -E10 -E1 E1 E10 E11 -E11 -E10 -E1 E1 E10 E11 -E11 -E10 -E1 E1 E10 E11 -E11 -E10 -E1 E1 E10 E11 -E11 -E10 -E1 E1 E10 E11 -E11 -E10 -E1 E1 E10 E11 -E11 -E10 -E1 E1 E10 E11 -E11 -E10 -E1 E1 E10 E11 -E11 -E10 -E1 E1 E10 E11 -E11 -E10 -E1 E1 E10 E11 -E11 -E10 -E1 E1 E10 E11 -E11 -E10 -E1 E1 E10 E11 -E11 -E10 -E1 E1 E10 E11 -E11 -E10 -E1 E1 E10 E11 -E11 -E10 -E1 E1 E10 E11 -E11 -E10 -E1 E1 E10 E11 -E11 -E10 -E1 E1 E10 E11 -E11 -E10 -E1 E1 E10 E11 -E11 -E10 -E1 E1 E10 E11 -E11 -E10 -E1 E1 E10 E11 -E11 -E10 -E1 E1 E10 E11 -E11 -E10 -E1 E1 E10 E11 -E11 -E10 -E1 E1 E10 E11 -E11 -E10 -E1 E1 E10 E11 -E11 -E10 -E1 E1 E10 E11 -E11 -E10 -E1 E1 E10 E11 -E11 -E10 -E1 E1 E10 E11 -E11 -E10 -E1 E1 E10 E11 -E11 -E10 -E1 E1 E10 E11 -E11 -E10 -E1 E1 E10 E11 -E11 -E10 -E1 E1 E10 E11 -E11 -E10 -E1 E1 E10 E11 -E11 -E10 -E1 E1 E10 E11 -E11 -E10 -E1 E1 E10 E11 -E11 -E10 -E1"/>
    <route id="r_2" edges="-E10 E0 E3 E2 -E10 E0 E3 E2 -E10 E0 E3 E2 -E10 E0 E3 E2 -E10 E0 E3 E2 -E10 E0 E3 E2 -E10 E0 E3 E2 -E10 E0 E3 E2 -E10 E0 E3 E2 -E10 E0 E3 E2 -E10 E0 E3 E2 -E10 E0 E3 E2 -E10 E0 E3 E2 -E10 E0 E3 E2 -E10 E0 E3 E2 -E10 E0 E3 E2 -E10 E0 E3 E2 -E10 E0 E3 E2 -E10 E0 E3 E2 -E10 E0 E3 E2 -E10 E0 E3 E2 -E10 E0 E3 E2 -E10 E0 E3 E2 -E10 E0 E3 E2 -E10 E0 E3 E2"/>
    <route id="r_3" edges="E10 E5 E6 E4 E10 E5 E6 E4 E10 E5 E6 E4 E10 E5 E6 E4 E10 E5 E6 E4 E10 E5 E6 E4 E10 E5 E6 E4 E10 E5 E6 E4 E10 E5 E6 E4 E10 E5 E6 E4 E10 E5 E6 E4 E10 E5 E6 E4 E10 E5 E6 E4 E10 E5 E6 E4 E10 E5 E6 E4 E10 E5 E6 E4 E10 E5 E6 E4 E10 E5 E6 E4 E10 E5 E6 E4 E10 E5 E6 E4 E10 E5 E6 E4 E10 E5 E6 E4 E10 E5 E6 E4 E10 E5 E6 E4 E10 E5 E6 E4"/>
</routes>
