<?xml version="1.0" encoding="UTF-8"?>

<!-- generated on 2024-07-03 19:18:02 by Eclipse SUMO netedit Version 1.20.0
<configuration xmlns:xsi="http://www.w3.org/2001/XMLSchema-instance" xsi:noNamespaceSchemaLocation="http://sumo.dlr.de/xsd/neteditConfiguration.xsd">

    <input>
        <sumocfg-file value="E:\2022_WirelessCommunicationProjectCode\V2X_Simulator\integratedSumoMatlabSimulator\sumoMatlabCosimulator_Ver20240625_JoinAndLeaveEvent\highway_scenario.sumocfg"/>
        <additional-files value=""/>
        <route-files value="E:\2022_WirelessCommunicationProjectCode\V2X_Simulator\integratedSumoMatlabSimulator\sumoMatlabCosimulator_Ver20240625_JoinAndLeaveEvent\highway_scenario.rou.xml"/>
        <sumo-net-file value="E:\2022_WirelessCommunicationProjectCode\V2X_Simulator\integratedSumoMatlabSimulator\sumoMatlabCosimulator_Ver20240625_JoinAndLeaveEvent\highway_scenario.net.xml"/>
    </input>

    <output>
        <output-file value="E:\2022_WirelessCommunicationProjectCode\V2X_Simulator\integratedSumoMatlabSimulator\sumoMatlabCosimulator_Ver20240625_JoinAndLeaveEvent\highway_scenario.net.xml"/>
    </output>

    <processing>
        <geometry.min-radius.fix.railways value="false"/>
        <geometry.max-grade.fix value="false"/>
        <offset.disable-normalization value="true"/>
        <lefthand value="0"/>
    </processing>

    <junctions>
        <no-turnarounds value="true"/>
        <junctions.corner-detail value="5"/>
        <junctions.limit-turn-speed value="36.11"/>
        <rectangular-lane-cut value="0"/>
    </junctions>

    <pedestrian>
        <walkingareas value="0"/>
    </pedestrian>

</configuration>
-->

<net version="1.20" junctionCornerDetail="5" limitTurnSpeed="36.11" xmlns:xsi="http://www.w3.org/2001/XMLSchema-instance" xsi:noNamespaceSchemaLocation="http://sumo.dlr.de/xsd/net_file.xsd">

    <location netOffset="0.00,0.00" convBoundary="0.00,-80.00,2000.00,80.00" origBoundary="-10000000000.00,-10000000000.00,10000000000.00,10000000000.00" projParameter="!"/>

    <edge id=":J0_0" function="internal">
        <lane id=":J0_0_0" index="0" allow="truck" speed="36.11" length="36.81" shape="297.33,11.20 286.19,12.12 278.37,14.53 271.32,17.91 262.50,21.76"/>
    </edge>
    <edge id=":J0_1" function="internal">
        <lane id=":J0_1_0" index="0" allow="truck" speed="36.11" length="37.66" shape="297.33,11.20 259.67,11.20"/>
    </edge>
    <edge id=":J0_2" function="internal">
        <lane id=":J0_2_0" index="0" disallow="truck" speed="36.11" length="8.60" shape="297.33,8.00 288.76,8.70"/>
    </edge>
    <edge id=":J0_3" function="internal">
        <lane id=":J0_3_0" index="0" disallow="truck" speed="36.11" length="37.66" shape="297.33,8.00 259.67,8.00"/>
    </edge>
    <edge id=":J0_4" function="internal">
        <lane id=":J0_4_0" index="0" disallow="truck" speed="36.11" length="8.64" shape="297.33,4.80 288.72,5.50"/>
    </edge>
    <edge id=":J0_5" function="internal">
        <lane id=":J0_5_0" index="0" disallow="truck" speed="36.11" length="37.66" shape="297.33,4.80 259.67,4.80"/>
        <lane id=":J0_5_1" index="1" disallow="truck" speed="36.11" length="37.66" shape="297.33,1.60 259.67,1.60"/>
    </edge>
    <edge id=":J0_14" function="internal">
        <lane id=":J0_14_0" index="0" disallow="truck" speed="36.11" length="29.25" shape="288.76,8.70 285.81,8.94 277.65,11.41 270.37,14.86 261.46,18.73"/>
    </edge>
    <edge id=":J0_15" function="internal">
        <lane id=":J0_15_0" index="0" disallow="truck" speed="36.11" length="30.25" shape="288.72,5.50 285.43,5.77 276.94,8.30 269.43,11.80 260.43,15.70"/>
    </edge>
    <edge id=":J0_7" function="internal">
        <lane id=":J0_7_0" index="0" allow="truck" speed="36.11" length="34.22" shape="266.49,-21.83 274.86,-17.74 280.99,-14.36 287.58,-12.05 297.33,-11.20"/>
        <lane id=":J0_7_1" index="1" disallow="truck" speed="36.11" length="34.22" shape="265.37,-18.83 273.84,-14.71 280.22,-11.26 287.17,-8.88 297.33,-8.00"/>
        <lane id=":J0_7_2" index="2" disallow="truck" speed="36.11" length="34.22" shape="264.25,-15.83 272.82,-11.69 279.45,-8.17 286.76,-5.72 297.33,-4.80"/>
    </edge>
    <edge id=":J0_10" function="internal">
        <lane id=":J0_10_0" index="0" allow="truck" speed="36.11" length="37.66" shape="259.67,-11.20 297.33,-11.20"/>
        <lane id=":J0_10_1" index="1" disallow="truck" speed="36.11" length="37.66" shape="259.67,-8.00 297.33,-8.00"/>
        <lane id=":J0_10_2" index="2" disallow="truck" speed="36.11" length="37.66" shape="259.67,-4.80 297.33,-4.80"/>
        <lane id=":J0_10_3" index="3" disallow="truck" speed="36.11" length="37.66" shape="259.67,-1.60 297.33,-1.60"/>
    </edge>
    <edge id=":J1_0" function="internal">
        <lane id=":J1_0_0" index="0" allow="truck" speed="36.11" length="21.86" shape="1718.21,20.51 1713.41,16.83 1710.16,13.87 1706.62,11.91 1700.95,11.20"/>
        <lane id=":J1_0_1" index="1" disallow="truck" speed="36.11" length="21.86" shape="1719.83,17.75 1714.60,13.81 1711.02,10.73 1707.13,8.72 1700.95,8.00"/>
        <lane id=":J1_0_2" index="2" disallow="truck" speed="36.11" length="21.86" shape="1721.44,14.98 1715.77,10.82 1711.86,7.60 1707.62,5.53 1700.95,4.80"/>
    </edge>
    <edge id=":J1_3" function="internal">
        <lane id=":J1_3_0" index="0" allow="truck" speed="36.11" length="21.53" shape="1722.48,11.20 1700.95,11.20"/>
        <lane id=":J1_3_1" index="1" disallow="truck" speed="36.11" length="21.53" shape="1722.48,8.00 1700.95,8.00"/>
        <lane id=":J1_3_2" index="2" disallow="truck" speed="36.11" length="21.53" shape="1722.48,4.80 1700.95,4.80"/>
        <lane id=":J1_3_3" index="3" disallow="truck" speed="36.11" length="21.53" shape="1722.48,1.60 1700.95,1.60"/>
    </edge>
    <edge id=":J1_7" function="internal">
        <lane id=":J1_7_0" index="0" allow="truck" speed="36.11" length="19.56" shape="1700.95,-11.20 1706.42,-11.93 1709.80,-13.90 1712.90,-16.83 1717.54,-20.41"/>
    </edge>
    <edge id=":J1_8" function="internal">
        <lane id=":J1_8_0" index="0" allow="truck" speed="36.11" length="21.53" shape="1700.95,-11.20 1722.48,-11.20"/>
    </edge>
    <edge id=":J1_9" function="internal">
        <lane id=":J1_9_0" index="0" disallow="truck" speed="36.11" length="5.79" shape="1700.95,-8.00 1706.70,-8.71"/>
    </edge>
    <edge id=":J1_10" function="internal">
        <lane id=":J1_10_0" index="0" disallow="truck" speed="36.11" length="21.53" shape="1700.95,-8.00 1722.48,-8.00"/>
    </edge>
    <edge id=":J1_11" function="internal">
        <lane id=":J1_11_0" index="0" disallow="truck" speed="36.11" length="6.20" shape="1700.95,-4.80 1707.11,-5.51"/>
    </edge>
    <edge id=":J1_12" function="internal">
        <lane id=":J1_12_0" index="0" disallow="truck" speed="36.11" length="21.53" shape="1700.95,-4.80 1722.48,-4.80"/>
        <lane id=":J1_12_1" index="1" disallow="truck" speed="36.11" length="21.53" shape="1700.95,-1.60 1722.48,-1.60"/>
    </edge>
    <edge id=":J1_14" function="internal">
        <lane id=":J1_14_0" index="0" disallow="truck" speed="36.11" length="15.50" shape="1706.70,-8.71 1706.94,-8.74 1710.69,-10.77 1714.13,-13.84 1719.22,-17.69"/>
    </edge>
    <edge id=":J1_15" function="internal">
        <lane id=":J1_15_0" index="0" disallow="truck" speed="36.11" length="16.83" shape="1707.11,-5.51 1707.46,-5.55 1711.58,-7.64 1715.37,-10.85 1720.90,-14.96"/>
    </edge>
    <edge id=":J2_0" function="internal">
        <lane id=":J2_0_0" index="0" allow="truck" speed="11.06" length="5.88" shape="1789.96,72.00 1791.93,71.82 1792.74,71.28 1792.40,70.37 1790.91,69.11"/>
        <lane id=":J2_0_1" index="1" disallow="truck" speed="17.59" length="17.63" shape="1789.96,75.20 1795.86,74.66 1798.30,73.03 1797.28,70.32 1792.79,66.52"/>
        <lane id=":J2_0_2" index="2" disallow="truck" speed="22.28" length="29.38" shape="1789.96,78.40 1799.79,77.50 1803.86,74.78 1802.15,70.26 1794.68,63.93"/>
    </edge>
    <edge id=":J3_0" function="internal">
        <lane id=":J3_0_0" index="0" allow="truck" speed="11.46" length="6.70" shape="157.45,69.07 155.59,70.35 155.11,71.27 156.04,71.82 158.35,72.00"/>
        <lane id=":J3_0_1" index="1" disallow="truck" speed="18.33" length="20.09" shape="155.65,66.42 150.05,70.26 148.63,73.00 151.40,74.65 158.35,75.20"/>
        <lane id=":J3_0_2" index="2" disallow="truck" speed="23.18" length="33.16" shape="153.85,63.76 144.65,70.16 142.33,74.74 146.90,77.48 158.35,78.40"/>
    </edge>
    <edge id=":J4_0" function="internal">
        <lane id=":J4_0_0" index="0" allow="truck" speed="11.83" length="7.44" shape="164.69,-72.00 162.10,-71.81 161.11,-71.25 161.73,-70.30 163.94,-68.98"/>
        <lane id=":J4_0_1" index="1" disallow="truck" speed="19.04" length="22.31" shape="164.69,-75.20 156.92,-74.63 153.96,-72.94 155.81,-70.11 162.45,-66.15"/>
        <lane id=":J4_0_2" index="2" disallow="truck" speed="24.18" length="37.19" shape="164.69,-78.40 151.75,-77.46 146.81,-74.63 149.88,-69.92 160.97,-63.32"/>
    </edge>
    <edge id=":J5_0" function="internal">
        <lane id=":J5_0_0" index="0" allow="truck" speed="36.11" length="36.11" shape="0.00,11.20 -8.40,5.60 -11.20,0.00 -8.40,-5.60 0.00,-11.20"/>
        <lane id=":J5_0_1" index="1" disallow="truck" speed="36.11" length="36.11" shape="0.00,8.00 -3.60,5.60 -4.80,3.20 -3.60,0.80 0.00,-1.60"/>
        <lane id=":J5_0_2" index="2" disallow="truck" speed="36.11" length="36.11" shape="0.00,4.80 -3.60,2.40 -4.80,0.00 -3.60,-2.40 0.00,-4.80"/>
        <lane id=":J5_0_3" index="3" disallow="truck" speed="36.11" length="36.11" shape="0.00,1.60 -3.60,-0.80 -4.80,-3.20 -3.60,-5.60 0.00,-8.00"/>
    </edge>
    <edge id=":J6_0" function="internal">
        <lane id=":J6_0_0" index="0" allow="truck" speed="36.11" length="36.11" shape="2000.00,-11.20 2008.40,-5.60 2011.20,0.00 2008.40,5.60 2000.00,11.20"/>
        <lane id=":J6_0_1" index="1" disallow="truck" speed="36.11" length="36.11" shape="2000.00,-8.00 2003.60,-5.60 2004.80,-3.20 2003.60,-0.80 2000.00,1.60"/>
        <lane id=":J6_0_2" index="2" disallow="truck" speed="36.11" length="36.11" shape="2000.00,-4.80 2003.60,-2.40 2004.80,0.00 2003.60,2.40 2000.00,4.80"/>
        <lane id=":J6_0_3" index="3" disallow="truck" speed="36.11" length="36.11" shape="2000.00,-1.60 2003.60,0.80 2004.80,3.20 2003.60,5.60 2000.00,8.00"/>
    </edge>
    <edge id=":J7_0" function="internal">
        <lane id=":J7_0_0" index="0" allow="truck" speed="11.08" length="5.90" shape="1790.76,-69.10 1792.27,-70.37 1792.61,-71.28 1791.80,-71.82 1789.82,-72.00"/>
        <lane id=":J7_0_1" index="1" disallow="truck" speed="17.61" length="17.71" shape="1792.63,-66.51 1797.16,-70.31 1798.20,-73.03 1795.75,-74.66 1789.82,-75.20"/>
        <lane id=":J7_0_2" index="2" disallow="truck" speed="22.31" length="29.52" shape="1794.51,-63.92 1802.05,-70.25 1803.78,-74.78 1799.71,-77.49 1789.82,-78.40"/>
    </edge>

    <edge id="-E1" from="J0" to="J5" priority="-1">
        <lane id="-E1_0" index="0" allow="truck" speed="36.11" length="259.67" shape="259.67,11.20 0.00,11.20"/>
        <lane id="-E1_1" index="1" disallow="truck" speed="36.11" length="259.67" shape="259.67,8.00 0.00,8.00"/>
        <lane id="-E1_2" index="2" disallow="truck" speed="36.11" length="259.67" shape="259.67,4.80 0.00,4.80"/>
        <lane id="-E1_3" index="3" disallow="truck" speed="36.11" length="259.67" shape="259.67,1.60 0.00,1.60"/>
    </edge>
    <edge id="-E10" from="J1" to="J0" priority="-1">
        <lane id="-E10_0" index="0" allow="truck" speed="36.11" length="1403.62" shape="1700.95,11.20 297.33,11.20"/>
        <lane id="-E10_1" index="1" disallow="truck" speed="36.11" length="1403.62" shape="1700.95,8.00 297.33,8.00"/>
        <lane id="-E10_2" index="2" disallow="truck" speed="36.11" length="1403.62" shape="1700.95,4.80 297.33,4.80"/>
        <lane id="-E10_3" index="3" disallow="truck" speed="36.11" length="1403.62" shape="1700.95,1.60 297.33,1.60"/>
    </edge>
    <edge id="-E11" from="J6" to="J1" priority="-1">
        <lane id="-E11_0" index="0" allow="truck" speed="36.11" length="277.52" shape="2000.00,11.20 1722.48,11.20"/>
        <lane id="-E11_1" index="1" disallow="truck" speed="36.11" length="277.52" shape="2000.00,8.00 1722.48,8.00"/>
        <lane id="-E11_2" index="2" disallow="truck" speed="36.11" length="277.52" shape="2000.00,4.80 1722.48,4.80"/>
        <lane id="-E11_3" index="3" disallow="truck" speed="36.11" length="277.52" shape="2000.00,1.60 1722.48,1.60"/>
    </edge>
    <edge id="E0" from="J0" to="J3" priority="-1" shape="300.00,0.00 297.01,1.02 294.06,2.03 291.14,3.04 288.25,4.04 285.40,5.03 282.58,6.02 279.79,7.00 277.03,7.98 274.31,8.95 271.62,9.92 268.96,10.88 266.32,11.83 263.72,12.78 261.15,13.73 258.61,14.67 256.10,15.60 253.62,16.53 251.17,17.46 248.75,18.38 246.35,19.29 243.99,20.20 241.65,21.11 239.33,22.01 237.05,22.91 234.79,23.80 232.56,24.69 230.36,25.57 228.18,26.46 226.02,27.33 223.89,28.20 221.79,29.07 219.71,29.94 217.66,30.80 215.63,31.66 213.62,32.51 211.64,33.36 209.68,34.21 207.74,35.05 205.83,35.89 203.94,36.73 202.07,37.56 200.22,38.39 198.39,39.22 196.58,40.04 194.80,40.87 193.03,41.69 191.29,42.50 189.56,43.32 187.85,44.13 186.17,44.94 184.50,45.74 182.85,46.55 181.22,47.35 179.60,48.15 178.01,48.95 176.43,49.74 174.86,50.54 173.32,51.33 171.79,52.12 170.28,52.91 168.78,53.69 167.30,54.48 165.83,55.26 164.38,56.05 162.94,56.83 161.52,57.61 160.11,58.38 158.71,59.16 157.33,59.94 155.96,60.71 154.60,61.49 153.25,62.26 151.92,63.03 150.60,63.81 149.29,64.58 147.99,65.35 146.70,66.12 145.42,66.89 144.16,67.66 142.90,68.43 141.65,69.20 140.41,69.97 139.18,70.74 137.96,71.51 136.75,72.28 135.54,73.05 134.34,73.82 133.15,74.59 131.97,75.36 130.79,76.13 129.62,76.90 128.46,77.68 127.30,78.45 126.15,79.22 125.00,80.00">
        <lane id="E0_0" index="0" allow="truck" speed="36.11" length="116.20" shape="262.50,21.76 261.39,22.17 258.89,23.10 256.44,24.02 254.01,24.94 251.59,25.86 249.21,26.76 246.88,27.66 244.55,28.57 242.25,29.46 239.98,30.35 237.74,31.24 235.53,32.12 233.36,32.99 231.19,33.87 229.03,34.74 226.93,35.60 224.86,36.46 222.80,37.32 220.77,38.17 218.75,39.03 216.76,39.87 214.81,40.71 212.86,41.55 210.94,42.38 209.06,43.21 207.19,44.04 205.33,44.87 203.51,45.68 201.69,46.51 199.92,47.31 198.17,48.12 196.40,48.95 194.69,49.74 192.99,50.55 191.30,51.35 189.64,52.15 187.99,52.94 186.38,53.73 184.75,54.53 183.17,55.31 181.60,56.10 180.03,56.88 178.50,57.66 176.98,58.44 175.48,59.22 173.98,60.00 172.51,60.77 171.06,61.54 169.62,62.31 168.20,63.08 166.77,63.85 165.36,64.63 163.97,65.38 162.62,66.14 161.26,66.91 159.91,67.67 158.57,68.43 157.45,69.07"/>
        <lane id="E0_1" index="1" disallow="truck" speed="36.11" length="116.20" shape="261.46,18.73 260.28,19.17 257.78,20.10 255.31,21.02 252.87,21.95 250.45,22.87 248.06,23.77 245.72,24.68 243.39,25.58 241.08,26.48 238.81,27.38 236.56,28.26 234.34,29.15 232.16,30.02 229.98,30.91 227.82,31.78 225.72,32.64 223.63,33.50 221.56,34.37 219.52,35.22 217.50,36.08 215.50,36.93 213.54,37.77 211.59,38.61 209.66,39.45 207.77,40.28 205.89,41.12 204.03,41.94 202.19,42.77 200.37,43.59 198.58,44.40 196.82,45.22 195.05,46.04 193.33,46.84 191.62,47.66 189.92,48.46 188.25,49.27 186.59,50.06 184.97,50.86 183.34,51.66 181.74,52.45 180.16,53.24 178.59,54.03 177.05,54.81 175.52,55.60 174.00,56.38 172.50,57.17 171.02,57.94 169.56,58.72 168.10,59.49 166.67,60.27 165.24,61.04 163.83,61.82 162.43,62.58 161.06,63.35 159.69,64.12 158.33,64.88 156.98,65.66 155.65,66.42"/>
        <lane id="E0_2" index="2" disallow="truck" speed="36.11" length="116.20" shape="260.43,15.70 259.17,16.17 256.66,17.10 254.18,18.03 251.74,18.96 249.32,19.88 246.92,20.78 244.57,21.69 242.23,22.60 239.91,23.50 237.64,24.40 235.38,25.29 233.15,26.18 230.96,27.05 228.78,27.94 226.62,28.81 224.50,29.68 222.40,30.55 220.33,31.42 218.28,32.27 216.25,33.13 214.25,33.98 212.27,34.83 210.32,35.68 208.38,36.52 206.48,37.35 204.59,38.19 202.72,39.02 200.88,39.85 199.05,40.68 197.25,41.49 195.47,42.32 193.70,43.14 191.97,43.95 190.25,44.77 188.54,45.57 186.86,46.38 185.20,47.18 183.56,47.99 181.93,48.79 180.31,49.58 178.73,50.38 177.15,51.17 175.59,51.96 174.05,52.75 172.53,53.54 171.02,54.33 169.53,55.11 168.05,55.89 166.59,56.67 165.14,57.46 163.71,58.23 162.29,59.01 160.88,59.78 159.49,60.56 158.12,61.33 156.75,62.10 155.39,62.88 154.05,63.65 153.85,63.76"/>
    </edge>
    <edge id="E1" from="J5" to="J0" priority="-1">
        <lane id="E1_0" index="0" allow="truck" speed="36.11" length="259.67" shape="0.00,-11.20 259.67,-11.20"/>
        <lane id="E1_1" index="1" disallow="truck" speed="36.11" length="259.67" shape="0.00,-8.00 259.67,-8.00"/>
        <lane id="E1_2" index="2" disallow="truck" speed="36.11" length="259.67" shape="0.00,-4.80 259.67,-4.80"/>
        <lane id="E1_3" index="3" disallow="truck" speed="36.11" length="259.67" shape="0.00,-1.60 259.67,-1.60"/>
    </edge>
    <edge id="E10" from="J0" to="J1" priority="-1">
        <lane id="E10_0" index="0" allow="truck" speed="36.11" length="1403.62" shape="297.33,-11.20 1700.95,-11.20"/>
        <lane id="E10_1" index="1" disallow="truck" speed="36.11" length="1403.62" shape="297.33,-8.00 1700.95,-8.00"/>
        <lane id="E10_2" index="2" disallow="truck" speed="36.11" length="1403.62" shape="297.33,-4.80 1700.95,-4.80"/>
        <lane id="E10_3" index="3" disallow="truck" speed="36.11" length="1403.62" shape="297.33,-1.60 1700.95,-1.60"/>
    </edge>
    <edge id="E11" from="J1" to="J6" priority="-1">
        <lane id="E11_0" index="0" allow="truck" speed="36.11" length="277.52" shape="1722.48,-11.20 2000.00,-11.20"/>
        <lane id="E11_1" index="1" disallow="truck" speed="36.11" length="277.52" shape="1722.48,-8.00 2000.00,-8.00"/>
        <lane id="E11_2" index="2" disallow="truck" speed="36.11" length="277.52" shape="1722.48,-4.80 2000.00,-4.80"/>
        <lane id="E11_3" index="3" disallow="truck" speed="36.11" length="277.52" shape="1722.48,-1.60 2000.00,-1.60"/>
    </edge>
    <edge id="E2" from="J2" to="J1" priority="-1" shape="1820.00,80.00 1818.45,78.87 1816.87,77.73 1815.28,76.58 1813.66,75.41 1812.02,74.24 1810.37,73.05 1808.69,71.86 1807.00,70.65 1805.29,69.44 1803.57,68.22 1801.83,66.99 1800.07,65.76 1798.30,64.52 1796.52,63.27 1794.73,62.02 1792.93,60.76 1791.11,59.50 1789.29,58.23 1787.46,56.96 1785.62,55.69 1783.77,54.42 1781.92,53.14 1780.06,51.87 1778.20,50.59 1776.33,49.31 1774.46,48.04 1772.58,46.76 1770.71,45.49 1768.83,44.22 1766.96,42.95 1765.08,41.68 1763.21,40.42 1761.34,39.17 1759.47,37.91 1757.61,36.67 1755.75,35.43 1753.90,34.19 1752.05,32.97 1750.22,31.75 1748.38,30.54 1746.56,29.34 1744.75,28.14 1742.95,26.96 1741.16,25.79 1739.38,24.62 1737.61,23.47 1735.86,22.34 1734.13,21.21 1732.40,20.10 1730.70,19.00 1729.01,17.91 1727.34,16.84 1725.68,15.78 1724.05,14.75 1722.44,13.72 1720.84,12.71 1719.27,11.73 1717.72,10.75 1716.20,9.80 1714.70,8.87 1713.22,7.95 1711.77,7.06 1710.35,6.18 1708.95,5.33 1707.58,4.50 1706.24,3.69 1704.93,2.91 1703.65,2.14 1702.40,1.40 1701.18,0.69 1700.00,0.00">
        <lane id="E2_0" index="0" allow="truck" speed="36.11" length="87.77" shape="1790.91,69.11 1790.15,68.58 1788.36,67.33 1786.54,66.07 1784.72,64.80 1782.91,63.54 1781.08,62.28 1779.23,61.01 1777.39,59.73 1775.54,58.47 1773.67,57.19 1771.82,55.92 1769.96,54.66 1768.08,53.38 1766.22,52.11 1764.34,50.84 1762.47,49.57 1760.61,48.31 1758.75,47.06 1756.88,45.81 1755.02,44.56 1753.17,43.33 1751.30,42.08 1749.47,40.85 1747.63,39.64 1745.80,38.42 1743.98,37.22 1742.15,36.01 1740.35,34.82 1738.57,33.65 1736.77,32.48 1735.00,31.32 1733.26,30.18 1731.50,29.05 1729.78,27.93 1728.07,26.82 1726.36,25.72 1724.68,24.64 1723.03,23.58 1721.39,22.53 1719.76,21.50 1718.21,20.51"/>
        <lane id="E2_1" index="1" disallow="truck" speed="36.11" length="87.77" shape="1792.79,66.52 1791.98,65.95 1790.19,64.70 1788.37,63.44 1786.55,62.17 1784.73,60.91 1782.90,59.64 1781.05,58.37 1779.20,57.10 1777.35,55.83 1775.48,54.55 1773.63,53.28 1771.76,52.01 1769.88,50.73 1768.02,49.46 1766.14,48.19 1764.27,46.92 1762.40,45.66 1760.54,44.41 1758.67,43.16 1756.80,41.90 1754.95,40.66 1753.08,39.42 1751.24,38.19 1749.40,36.97 1747.57,35.75 1745.74,34.55 1743.91,33.34 1742.11,32.15 1740.32,30.98 1738.53,29.80 1736.75,28.64 1735.00,27.50 1733.25,26.37 1731.52,25.24 1729.80,24.13 1728.10,23.03 1726.41,21.95 1724.75,20.88 1723.11,19.83 1721.47,18.80 1719.83,17.75"/>
        <lane id="E2_2" index="2" disallow="truck" speed="36.11" length="87.77" shape="1794.68,63.93 1793.81,63.33 1792.02,62.07 1790.20,60.81 1788.38,59.54 1786.55,58.28 1784.71,57.01 1782.86,55.74 1781.01,54.46 1779.16,53.19 1777.29,51.91 1775.43,50.63 1773.56,49.36 1771.68,48.08 1769.81,46.81 1767.93,45.54 1766.06,44.27 1764.19,43.01 1762.32,41.75 1760.45,40.50 1758.58,39.24 1756.72,38.00 1754.86,36.76 1753.01,35.52 1751.17,34.30 1749.34,33.08 1747.50,31.88 1745.68,30.67 1743.87,29.48 1742.07,28.30 1740.28,27.13 1738.50,25.96 1736.74,24.81 1734.99,23.68 1733.26,22.55 1731.53,21.44 1729.83,20.34 1728.14,19.26 1726.48,18.19 1724.82,17.13 1723.19,16.10 1721.58,15.07 1721.44,14.98"/>
    </edge>
    <edge id="E3" from="J3" to="J2" priority="-1">
        <lane id="E3_0" index="0" allow="truck" speed="100.00" length="1631.61" shape="158.35,72.00 1789.96,72.00"/>
        <lane id="E3_1" index="1" disallow="truck" speed="100.00" length="1631.61" shape="158.35,75.20 1789.96,75.20"/>
        <lane id="E3_2" index="2" disallow="truck" speed="100.00" length="1631.61" shape="158.35,78.40 1789.96,78.40"/>
    </edge>
    <edge id="E4" from="J4" to="J0" priority="-1" shape="125.00,-80.00 126.58,-79.17 128.18,-78.33 129.78,-77.49 131.39,-76.64 133.01,-75.80 134.64,-74.95 136.28,-74.10 137.93,-73.24 139.59,-72.39 141.26,-71.53 142.93,-70.66 144.62,-69.80 146.31,-68.94 148.01,-68.07 149.71,-67.20 151.43,-66.33 153.15,-65.46 154.88,-64.58 156.62,-63.71 158.37,-62.83 160.12,-61.95 161.88,-61.07 163.64,-60.19 165.42,-59.31 167.20,-58.42 168.98,-57.54 170.77,-56.66 172.57,-55.77 174.38,-54.89 176.19,-54.00 178.00,-53.11 179.82,-52.23 181.65,-51.34 183.48,-50.45 185.32,-49.57 187.17,-48.68 189.01,-47.80 190.87,-46.91 192.72,-46.02 194.59,-45.14 196.45,-44.25 198.32,-43.37 200.20,-42.49 202.08,-41.61 203.96,-40.72 205.85,-39.84 207.74,-38.97 209.63,-38.09 211.53,-37.21 213.43,-36.34 215.33,-35.46 217.24,-34.59 219.14,-33.72 221.06,-32.85 222.97,-31.99 224.89,-31.12 226.80,-30.26 228.72,-29.40 230.65,-28.54 232.57,-27.69 234.50,-26.84 236.42,-25.99 238.35,-25.14 240.28,-24.29 242.21,-23.45 244.15,-22.61 246.08,-21.78 248.01,-20.94 249.95,-20.12 251.88,-19.29 253.82,-18.47 255.75,-17.65 257.69,-16.83 259.62,-16.02 261.56,-15.21 263.49,-14.41 265.43,-13.61 267.36,-12.81 269.29,-12.02 271.23,-11.23 273.16,-10.45 275.09,-9.67 277.01,-8.90 278.94,-8.13 280.87,-7.36 282.79,-6.60 284.71,-5.85 286.63,-5.10 288.55,-4.35 290.46,-3.62 292.38,-2.88 294.29,-2.15 296.19,-1.43 298.10,-0.71 300.00,0.00">
        <lane id="E4_0" index="0" allow="truck" speed="36.11" length="113.30" shape="163.94,-68.98 165.46,-68.23 167.20,-67.35 168.98,-66.47 170.76,-65.58 172.52,-64.72 174.31,-63.84 176.09,-62.95 177.89,-62.08 179.72,-61.18 181.51,-60.30 183.31,-59.43 185.15,-58.53 186.96,-57.66 188.78,-56.78 190.63,-55.89 192.46,-55.02 194.33,-54.12 196.16,-53.24 198.02,-52.37 199.88,-51.48 201.72,-50.61 203.59,-49.74 205.49,-48.85 207.36,-47.96 209.21,-47.10 211.10,-46.23 213.00,-45.35 214.88,-44.48 216.78,-43.61 218.67,-42.73 220.56,-41.87 222.46,-41.00 224.35,-40.14 226.26,-39.28 228.18,-38.41 230.08,-37.56 231.98,-36.70 233.90,-35.85 235.80,-35.01 237.73,-34.16 239.65,-33.31 241.57,-32.46 243.49,-31.62 245.40,-30.79 247.32,-29.96 249.26,-29.12 251.16,-28.29 253.09,-27.48 255.02,-26.65 256.94,-25.84 258.87,-25.02 260.80,-24.20 262.71,-23.40 264.63,-22.60 266.49,-21.83"/>
        <lane id="E4_1" index="1" disallow="truck" speed="36.11" length="113.30" shape="162.45,-66.15 164.03,-65.36 165.78,-64.49 167.56,-63.61 169.34,-62.72 171.10,-61.85 172.89,-60.97 174.68,-60.08 176.49,-59.20 178.31,-58.31 180.10,-57.42 181.91,-56.55 183.75,-55.66 185.57,-54.77 187.40,-53.90 189.25,-53.01 191.08,-52.13 192.95,-51.24 194.78,-50.35 196.65,-49.48 198.51,-48.59 200.36,-47.72 202.23,-46.84 204.12,-45.95 206.00,-45.06 207.87,-44.20 209.76,-43.33 211.65,-42.44 213.54,-41.57 215.44,-40.70 217.33,-39.82 219.23,-38.96 221.13,-38.09 223.04,-37.22 224.95,-36.36 226.87,-35.49 228.77,-34.64 230.68,-33.78 232.60,-32.93 234.51,-32.08 236.44,-31.23 238.36,-30.38 240.28,-29.53 242.21,-28.69 244.12,-27.85 246.05,-27.02 247.99,-26.19 249.90,-25.35 251.83,-24.54 253.76,-23.71 255.69,-22.89 257.62,-22.07 259.55,-21.25 261.47,-20.45 263.40,-19.64 265.37,-18.83"/>
        <lane id="E4_2" index="2" disallow="truck" speed="36.11" length="113.30" shape="160.97,-63.32 162.60,-62.50 164.35,-61.62 166.13,-60.74 167.91,-59.85 169.69,-58.98 171.48,-58.10 173.27,-57.21 175.08,-56.33 176.90,-55.44 178.70,-54.55 180.52,-53.67 182.35,-52.78 184.18,-51.89 186.01,-51.01 187.86,-50.12 189.70,-49.24 191.56,-48.35 193.41,-47.46 195.28,-46.59 197.14,-45.70 199.00,-44.82 200.88,-43.94 202.76,-43.06 204.64,-42.17 206.52,-41.29 208.41,-40.42 210.30,-39.54 212.20,-38.66 214.10,-37.79 216.00,-36.91 217.90,-36.05 219.80,-35.18 221.72,-34.31 223.63,-33.45 225.55,-32.58 227.46,-31.72 229.37,-30.86 231.30,-30.00 233.22,-29.15 235.15,-28.30 237.07,-27.45 238.99,-26.60 240.92,-25.76 242.85,-24.92 244.78,-24.08 246.72,-23.25 248.64,-22.41 250.58,-21.59 252.51,-20.76 254.44,-19.94 256.37,-19.12 258.31,-18.30 260.24,-17.50 262.17,-16.69 264.10,-15.89 264.25,-15.83"/>
    </edge>
    <edge id="E5" from="J1" to="J7" priority="-1" shape="1700.00,0.00 1701.33,-0.82 1702.68,-1.65 1704.06,-2.50 1705.46,-3.36 1706.88,-4.25 1708.32,-5.14 1709.78,-6.06 1711.27,-6.99 1712.77,-7.93 1714.29,-8.89 1715.83,-9.86 1717.38,-10.84 1718.96,-11.84 1720.55,-12.85 1722.16,-13.87 1723.78,-14.91 1725.41,-15.95 1727.07,-17.01 1728.73,-18.08 1730.41,-19.16 1732.10,-20.25 1733.80,-21.35 1735.52,-22.46 1737.24,-23.58 1738.98,-24.71 1740.72,-25.85 1742.47,-26.99 1744.24,-28.14 1746.01,-29.30 1747.79,-30.47 1749.57,-31.64 1751.36,-32.82 1753.16,-34.01 1754.96,-35.20 1756.77,-36.40 1758.58,-37.60 1760.39,-38.81 1762.21,-40.02 1764.03,-41.23 1765.85,-42.45 1767.67,-43.67 1769.49,-44.90 1771.31,-46.12 1773.14,-47.35 1774.96,-48.58 1776.77,-49.82 1778.59,-51.05 1780.40,-52.28 1782.21,-53.52 1784.02,-54.75 1785.82,-55.98 1787.62,-57.21 1789.41,-58.45 1791.19,-59.68 1792.97,-60.90 1794.74,-62.13 1796.50,-63.35 1798.25,-64.57 1800.00,-65.79 1801.73,-67.00 1803.46,-68.21 1805.17,-69.41 1806.87,-70.61 1808.56,-71.81 1810.24,-73.00 1811.90,-74.18 1813.55,-75.36 1815.19,-76.53 1816.81,-77.69 1818.41,-78.85 1820.00,-80.00">
        <lane id="E5_0" index="0" allow="truck" speed="36.11" length="88.17" shape="1717.54,-20.41 1717.86,-20.61 1719.47,-21.65 1721.11,-22.69 1722.75,-23.74 1724.40,-24.81 1726.08,-25.89 1727.76,-26.97 1729.46,-28.07 1731.17,-29.17 1732.88,-30.29 1734.61,-31.41 1736.34,-32.55 1738.11,-33.70 1739.87,-34.84 1741.62,-35.99 1743.40,-37.16 1745.17,-38.32 1746.95,-39.50 1748.75,-40.68 1750.54,-41.87 1752.35,-43.07 1754.15,-44.26 1755.95,-45.47 1757.78,-46.68 1759.59,-47.88 1761.40,-49.10 1763.20,-50.31 1765.02,-51.54 1766.85,-52.76 1768.67,-53.98 1770.46,-55.19 1772.27,-56.43 1774.10,-57.67 1775.89,-58.89 1777.70,-60.13 1779.52,-61.36 1781.31,-62.59 1783.09,-63.80 1784.86,-65.03 1786.65,-66.27 1788.43,-67.48 1790.18,-68.70 1790.76,-69.10"/>
        <lane id="E5_1" index="1" disallow="truck" speed="36.11" length="88.17" shape="1719.22,-17.69 1719.58,-17.92 1721.19,-18.95 1722.83,-20.00 1724.48,-21.05 1726.13,-22.12 1727.81,-23.20 1729.50,-24.28 1731.19,-25.38 1732.91,-26.49 1734.62,-27.60 1736.36,-28.73 1738.09,-29.87 1739.85,-31.01 1741.62,-32.16 1743.38,-33.31 1745.15,-34.48 1746.93,-35.65 1748.72,-36.83 1750.51,-38.01 1752.31,-39.20 1754.12,-40.40 1755.92,-41.60 1757.73,-42.80 1759.55,-44.02 1761.36,-45.22 1763.18,-46.44 1764.99,-47.65 1766.81,-48.88 1768.63,-50.11 1770.46,-51.33 1772.26,-52.55 1774.07,-53.79 1775.90,-55.02 1777.69,-56.24 1779.50,-57.48 1781.32,-58.72 1783.11,-59.94 1784.90,-61.16 1786.68,-62.40 1788.47,-63.63 1790.24,-64.85 1792.00,-66.07 1792.63,-66.51"/>
        <lane id="E5_2" index="2" disallow="truck" speed="36.11" length="88.17" shape="1720.90,-14.96 1721.30,-15.22 1722.92,-16.26 1724.55,-17.30 1726.21,-18.36 1727.86,-19.43 1729.54,-20.51 1731.23,-21.59 1732.93,-22.69 1734.65,-23.80 1736.37,-24.92 1738.11,-26.05 1739.84,-27.19 1741.60,-28.33 1743.37,-29.48 1745.13,-30.64 1746.91,-31.81 1748.69,-32.98 1750.48,-34.16 1752.28,-35.34 1754.08,-36.53 1755.89,-37.73 1757.69,-38.93 1759.50,-40.14 1761.32,-41.35 1763.14,-42.56 1764.96,-43.78 1766.78,-45.00 1768.60,-46.23 1770.42,-47.45 1772.25,-48.68 1774.06,-49.90 1775.87,-51.14 1777.69,-52.37 1779.50,-53.60 1781.31,-54.84 1783.12,-56.07 1784.92,-57.30 1786.71,-58.53 1788.50,-59.77 1790.28,-61.00 1792.06,-62.22 1793.83,-63.44 1794.51,-63.92"/>
    </edge>
    <edge id="E6" from="J7" to="J4" priority="-1">
        <lane id="E6_0" index="0" allow="truck" speed="100.00" length="1625.13" shape="1789.82,-72.00 164.69,-72.00"/>
        <lane id="E6_1" index="1" disallow="truck" speed="100.00" length="1625.13" shape="1789.82,-75.20 164.69,-75.20"/>
        <lane id="E6_2" index="2" disallow="truck" speed="100.00" length="1625.13" shape="1789.82,-78.40 164.69,-78.40"/>
    </edge>

    <junction id="J0" type="priority" x="300.00" y="0.00" incLanes="-E10_0 -E10_1 -E10_2 -E10_3 E4_0 E4_1 E4_2 E1_0 E1_1 E1_2 E1_3" intLanes=":J0_0_0 :J0_1_0 :J0_14_0 :J0_3_0 :J0_15_0 :J0_5_0 :J0_5_1 :J0_7_0 :J0_7_1 :J0_7_2 :J0_10_0 :J0_10_1 :J0_10_2 :J0_10_3" shape="297.33,12.80 297.33,-12.80 290.55,-13.15 285.65,-14.17 281.73,-15.76 277.92,-17.87 273.32,-20.42 267.05,-23.33 263.69,-14.33 264.89,-13.48 264.54,-13.18 263.55,-12.97 261.92,-12.84 259.67,-12.80 259.67,12.80 259.91,14.19 263.01,23.28 270.15,20.34 275.40,17.79 279.75,15.70 284.20,14.13 289.73,13.14">